// Generated for: spectre
// Generated on: Dec  4 20:21:48 2021
// Design library name: fsm_tb
// Design cell name: fsm_tb
// Design view name: schematic
simulator lang=spectre
global 0 VDD! VSS!
parameters T=1n
include "/ubc/ece/data/cmc2/kits/GPDK45/gpdk045_v_5_0/gpdk045/../models/spectre/gpdk045.scs" section=mc

// Library name: gsclib045
// Cell name: NAND2X1
// View name: schematic
subckt NAND2X1 A B Y inh_VDD inh_VSS
    mn1 (Y B n0 inh_VSS) g45n1svt w=(260n) l=45n nf=1 as=36.4f ad=36.4f \
        ps=800n pd=800n nrd=538.462m nrs=538.462m sa=140n sb=140n sd=160n \
        sca=144.98299 scb=0.10251 scc=0.01780 m=(1)
    mn0 (n0 A inh_VSS inh_VSS) g45n1svt w=(260n) l=45n nf=1 as=36.4f \
        ad=36.4f ps=800n pd=800n nrd=538.462m nrs=538.462m sa=140n sb=140n \
        sd=160n sca=144.98299 scb=0.10251 scc=0.01780 m=(1)
    mp1 (Y B inh_VDD inh_VDD) g45p1svt w=(390n) l=45n nf=1 as=54.6f \
        ad=54.6f ps=1.06u pd=1.06u nrd=358.974m nrs=358.974m sa=140n \
        sb=140n sd=160n sca=114.89040 scb=0.09003 scc=0.01377 m=(1)
    mp0 (Y A inh_VDD inh_VDD) g45p1svt w=(390n) l=45n nf=1 as=54.6f \
        ad=54.6f ps=1.06u pd=1.06u nrd=358.974m nrs=358.974m sa=140n \
        sb=140n sd=160n sca=114.89040 scb=0.09003 scc=0.01377 m=(1)
ends NAND2X1
// End of subcircuit definition.

// Library name: gsclib045
// Cell name: NOR2X1
// View name: schematic
subckt NOR2X1 A B Y inh_VDD inh_VSS
    mn1 (Y B inh_VSS inh_VSS) g45n1svt w=(260n) l=45n nf=1 as=36.4f \
        ad=36.4f ps=800n pd=800n nrd=538.462m nrs=538.462m sa=140n sb=140n \
        sd=160n sca=144.98299 scb=0.10251 scc=0.01780 m=(1)
    mn0 (Y A inh_VSS inh_VSS) g45n1svt w=(260n) l=45n nf=1 as=36.4f \
        ad=36.4f ps=800n pd=800n nrd=538.462m nrs=538.462m sa=140n sb=140n \
        sd=160n sca=144.98299 scb=0.10251 scc=0.01780 m=(1)
    mp1 (Y B net41 inh_VDD) g45p1svt w=(390n) l=45n nf=1 as=54.6f ad=54.6f \
        ps=1.06u pd=1.06u nrd=358.974m nrs=358.974m sa=140n sb=140n \
        sd=160n sca=114.89040 scb=0.09003 scc=0.01377 m=(1)
    mp0 (net41 A inh_VDD inh_VDD) g45p1svt w=(390n) l=45n nf=1 as=54.6f \
        ad=54.6f ps=1.06u pd=1.06u nrd=358.974m nrs=358.974m sa=140n \
        sb=140n sd=160n sca=114.89040 scb=0.09003 scc=0.01377 m=(1)
ends NOR2X1
// End of subcircuit definition.

// Library name: gsclib045
// Cell name: OAI221X1
// View name: schematic
subckt OAI221X1 A0 A1 B0 B1 C0 Y inh_VDD inh_VSS
    mn4 (Y C0 net132 inh_VSS) g45n1svt w=(260n) l=45n nf=1 as=36.4f \
        ad=36.4f ps=800n pd=800n nrd=538.462m nrs=538.462m sa=140n sb=140n \
        sd=160n sca=144.98299 scb=0.10251 scc=0.01780 m=(1)
    mn0 (net128 A0 inh_VSS inh_VSS) g45n1svt w=(260n) l=45n nf=1 as=36.4f \
        ad=36.4f ps=800n pd=800n nrd=538.462m nrs=538.462m sa=140n sb=140n \
        sd=160n sca=144.98299 scb=0.10251 scc=0.01780 m=(1)
    mn1 (net128 A1 inh_VSS inh_VSS) g45n1svt w=(260n) l=45n nf=1 as=36.4f \
        ad=36.4f ps=800n pd=800n nrd=538.462m nrs=538.462m sa=140n sb=140n \
        sd=160n sca=144.98299 scb=0.10251 scc=0.01780 m=(1)
    mn2 (net132 B0 net128 inh_VSS) g45n1svt w=(260n) l=45n nf=1 as=36.4f \
        ad=36.4f ps=800n pd=800n nrd=538.462m nrs=538.462m sa=140n sb=140n \
        sd=160n sca=144.98299 scb=0.10251 scc=0.01780 m=(1)
    mn3 (net132 B1 net128 inh_VSS) g45n1svt w=(260n) l=45n nf=1 as=36.4f \
        ad=36.4f ps=800n pd=800n nrd=538.462m nrs=538.462m sa=140n sb=140n \
        sd=160n sca=144.98299 scb=0.10251 scc=0.01780 m=(1)
    mp3 (Y B1 net123 inh_VDD) g45p1svt w=(390n) l=45n nf=1 as=54.6f \
        ad=54.6f ps=1.06u pd=1.06u nrd=358.974m nrs=358.974m sa=140n \
        sb=140n sd=160n sca=114.89040 scb=0.09003 scc=0.01377 m=(1)
    mp0 (net115 A0 inh_VDD inh_VDD) g45p1svt w=(390n) l=45n nf=1 as=54.6f \
        ad=54.6f ps=1.06u pd=1.06u nrd=358.974m nrs=358.974m sa=140n \
        sb=140n sd=160n sca=114.89040 scb=0.09003 scc=0.01377 m=(1)
    mp1 (Y A1 net115 inh_VDD) g45p1svt w=(390n) l=45n nf=1 as=54.6f \
        ad=54.6f ps=1.06u pd=1.06u nrd=358.974m nrs=358.974m sa=140n \
        sb=140n sd=160n sca=114.89040 scb=0.09003 scc=0.01377 m=(1)
    mp2 (net123 B0 inh_VDD inh_VDD) g45p1svt w=(390n) l=45n nf=1 as=54.6f \
        ad=54.6f ps=1.06u pd=1.06u nrd=358.974m nrs=358.974m sa=140n \
        sb=140n sd=160n sca=114.89040 scb=0.09003 scc=0.01377 m=(1)
    mp4 (Y C0 inh_VDD inh_VDD) g45p1svt w=(390n) l=45n nf=1 as=54.6f \
        ad=54.6f ps=1.06u pd=1.06u nrd=358.974m nrs=358.974m sa=140n \
        sb=140n sd=160n sca=114.89040 scb=0.09003 scc=0.01377 m=(1)
ends OAI221X1
// End of subcircuit definition.

// Library name: gsclib045
// Cell name: DFFHQX1
// View name: schematic
subckt DFFHQX1 CK D Q inh_VDD inh_VSS
    mn26 (n20 CKb n21 inh_VSS) g45n1svt w=(205n) l=45n nf=1 as=28.7f \
        ad=28.7f ps=690n pd=690n nrd=682.927m nrs=682.927m sa=140n sb=140n \
        sd=160n sca=166.60249 scb=0.10864 scc=0.02069 m=(1)
    mn25 (n21 D inh_VSS inh_VSS) g45n1svt w=(205n) l=45n nf=1 as=28.7f \
        ad=28.7f ps=690n pd=690n nrd=682.927m nrs=682.927m sa=140n sb=140n \
        sd=160n sca=166.60249 scb=0.10864 scc=0.02069 m=(1)
    mn55 (Q qbint inh_VSS inh_VSS) g45n1svt w=(260n) l=45n nf=1 as=36.4f \
        ad=36.4f ps=800n pd=800n nrd=538.462m nrs=538.462m sa=140n sb=140n \
        sd=160n sca=144.98299 scb=0.10251 scc=0.01780 m=(1)
    mn50 (net172 qbint inh_VSS inh_VSS) g45n1svt w=(205n) l=45n nf=1 \
        as=28.7f ad=28.7f ps=690n pd=690n nrd=682.927m nrs=682.927m \
        sa=140n sb=140n sd=160n sca=166.60249 scb=0.10864 scc=0.02069 \
        m=(1)
    mn51 (n30 CKb net172 inh_VSS) g45n1svt w=(205n) l=45n nf=1 as=28.7f \
        ad=28.7f ps=690n pd=690n nrd=682.927m nrs=682.927m sa=140n sb=140n \
        sd=160n sca=166.60249 scb=0.10864 scc=0.02069 m=(1)
    mn30 (mout n20 inh_VSS inh_VSS) g45n1svt w=(205n) l=45n nf=1 as=28.7f \
        ad=28.7f ps=690n pd=690n nrd=682.927m nrs=682.927m sa=140n sb=140n \
        sd=160n sca=166.60249 scb=0.10864 scc=0.02069 m=(1)
    mn36 (n20 CKbb net192 inh_VSS) g45n1svt w=(205n) l=45n nf=1 as=28.7f \
        ad=28.7f ps=690n pd=690n nrd=682.927m nrs=682.927m sa=140n sb=140n \
        sd=160n sca=166.60249 scb=0.10864 scc=0.02069 m=(1)
    mn20 (CKb CK inh_VSS inh_VSS) g45n1svt w=(145n) l=45n nf=1 as=20.3f \
        ad=20.3f ps=570n pd=570n nrd=965.517m nrs=965.517m sa=140n sb=140n \
        sd=160n sca=203.41795 scb=0.11509 scc=0.02523 m=(1)
    mn45 (qbint n30 inh_VSS inh_VSS) g45n1svt w=(205n) l=45n nf=1 as=28.7f \
        ad=28.7f ps=690n pd=690n nrd=682.927m nrs=682.927m sa=140n sb=140n \
        sd=160n sca=166.60249 scb=0.10864 scc=0.02069 m=(1)
    mn40 (mout CKbb n30 inh_VSS) g45n1svt w=(205n) l=45n nf=1 as=28.7f \
        ad=28.7f ps=690n pd=690n nrd=682.927m nrs=682.927m sa=140n sb=140n \
        sd=160n sca=166.60249 scb=0.10864 scc=0.02069 m=(1)
    mn21 (CKbb CKb inh_VSS inh_VSS) g45n1svt w=(145n) l=45n nf=1 as=20.3f \
        ad=20.3f ps=570n pd=570n nrd=965.517m nrs=965.517m sa=140n sb=140n \
        sd=160n sca=203.41795 scb=0.11509 scc=0.02523 m=(1)
    mn35 (net192 mout inh_VSS inh_VSS) g45n1svt w=(205n) l=45n nf=1 \
        as=28.7f ad=28.7f ps=690n pd=690n nrd=682.927m nrs=682.927m \
        sa=140n sb=140n sd=160n sca=166.60249 scb=0.10864 scc=0.02069 \
        m=(1)
    mp26 (n20 CKbb n22 inh_VDD) g45p1svt w=(310n) l=45n nf=1 as=43.4f \
        ad=43.4f ps=900n pd=900n nrd=451.613m nrs=451.613m sa=140n sb=140n \
        sd=160n sca=130.90642 scb=0.09728 scc=0.01590 m=(1)
    mp25 (n22 D inh_VDD inh_VDD) g45p1svt w=(310n) l=45n nf=1 as=43.4f \
        ad=43.4f ps=900n pd=900n nrd=451.613m nrs=451.613m sa=140n sb=140n \
        sd=160n sca=130.90642 scb=0.09728 scc=0.01590 m=(1)
    mp51 (n30 CKbb net123 inh_VDD) g45p1svt w=(310n) l=45n nf=1 as=43.4f \
        ad=43.4f ps=900n pd=900n nrd=451.613m nrs=451.613m sa=140n sb=140n \
        sd=160n sca=130.90642 scb=0.09728 scc=0.01590 m=(1)
    mp50 (net123 qbint inh_VDD inh_VDD) g45p1svt w=(310n) l=45n nf=1 \
        as=43.4f ad=43.4f ps=900n pd=900n nrd=451.613m nrs=451.613m \
        sa=140n sb=140n sd=160n sca=130.90642 scb=0.09728 scc=0.01590 \
        m=(1)
    mp55 (Q qbint inh_VDD inh_VDD) g45p1svt w=(390n) l=45n nf=1 as=54.6f \
        ad=54.6f ps=1.06u pd=1.06u nrd=358.974m nrs=358.974m sa=140n \
        sb=140n sd=160n sca=114.89040 scb=0.09003 scc=0.01377 m=(1)
    mp35 (net147 mout inh_VDD inh_VDD) g45p1svt w=(310n) l=45n nf=1 \
        as=43.4f ad=43.4f ps=900n pd=900n nrd=451.613m nrs=451.613m \
        sa=140n sb=140n sd=160n sca=130.90642 scb=0.09728 scc=0.01590 \
        m=(1)
    mp36 (n20 CKb net147 inh_VDD) g45p1svt w=(310n) l=45n nf=1 as=43.4f \
        ad=43.4f ps=900n pd=900n nrd=451.613m nrs=451.613m sa=140n sb=140n \
        sd=160n sca=130.90642 scb=0.09728 scc=0.01590 m=(1)
    mp45 (qbint n30 inh_VDD inh_VDD) g45p1svt w=(310n) l=45n nf=1 as=43.4f \
        ad=43.4f ps=900n pd=900n nrd=451.613m nrs=451.613m sa=140n sb=140n \
        sd=160n sca=130.90642 scb=0.09728 scc=0.01590 m=(1)
    mp20 (CKb CK inh_VDD inh_VDD) g45p1svt w=(215n) l=45n nf=1 as=30.1f \
        ad=30.1f ps=710n pd=710n nrd=651.163m nrs=651.163m sa=140n sb=140n \
        sd=160n sca=162.02845 scb=0.10751 scc=0.02009 m=(1)
    mp40 (mout CKb n30 inh_VDD) g45p1svt w=(310n) l=45n nf=1 as=43.4f \
        ad=43.4f ps=900n pd=900n nrd=451.613m nrs=451.613m sa=140n sb=140n \
        sd=160n sca=130.90642 scb=0.09728 scc=0.01590 m=(1)
    mp30 (mout n20 inh_VDD inh_VDD) g45p1svt w=(310n) l=45n nf=1 as=43.4f \
        ad=43.4f ps=900n pd=900n nrd=451.613m nrs=451.613m sa=140n sb=140n \
        sd=160n sca=130.90642 scb=0.09728 scc=0.01590 m=(1)
    mp21 (CKbb CKb inh_VDD inh_VDD) g45p1svt w=(215n) l=45n nf=1 as=30.1f \
        ad=30.1f ps=710n pd=710n nrd=651.163m nrs=651.163m sa=140n sb=140n \
        sd=160n sca=162.02845 scb=0.10751 scc=0.02009 m=(1)
ends DFFHQX1
// End of subcircuit definition.

// Library name: gsclib045
// Cell name: AOI22XL
// View name: schematic
subckt AOI22XL A0 A1 B0 B1 Y inh_VDD inh_VSS
    mn3 (Y B1 net98 inh_VSS) g45n1svt w=(145n) l=45n nf=1 as=20.3f \
        ad=20.3f ps=570n pd=570n nrd=965.517m nrs=965.517m sa=140n sb=140n \
        sd=160n sca=203.41795 scb=0.11509 scc=0.02523 m=(1)
    mn0 (net106 A0 inh_VSS inh_VSS) g45n1svt w=(145n) l=45n nf=1 as=20.3f \
        ad=20.3f ps=570n pd=570n nrd=965.517m nrs=965.517m sa=140n sb=140n \
        sd=160n sca=203.41795 scb=0.11509 scc=0.02523 m=(1)
    mn2 (net98 B0 inh_VSS inh_VSS) g45n1svt w=(145n) l=45n nf=1 as=20.3f \
        ad=20.3f ps=570n pd=570n nrd=965.517m nrs=965.517m sa=140n sb=140n \
        sd=160n sca=203.41795 scb=0.11509 scc=0.02523 m=(1)
    mn1 (Y A1 net106 inh_VSS) g45n1svt w=(145n) l=45n nf=1 as=20.3f \
        ad=20.3f ps=570n pd=570n nrd=965.517m nrs=965.517m sa=140n sb=140n \
        sd=160n sca=203.41795 scb=0.11509 scc=0.02523 m=(1)
    mp3 (Y B1 net89 inh_VDD) g45p1svt w=(215n) l=45n nf=1 as=30.1f \
        ad=30.1f ps=710n pd=710n nrd=651.163m nrs=651.163m sa=140n sb=140n \
        sd=160n sca=162.02845 scb=0.10751 scc=0.02009 m=(1)
    mp0 (net89 A0 inh_VDD inh_VDD) g45p1svt w=(215n) l=45n nf=1 as=30.1f \
        ad=30.1f ps=710n pd=710n nrd=651.163m nrs=651.163m sa=140n sb=140n \
        sd=160n sca=162.02845 scb=0.10751 scc=0.02009 m=(1)
    mp1 (net89 A1 inh_VDD inh_VDD) g45p1svt w=(215n) l=45n nf=1 as=30.1f \
        ad=30.1f ps=710n pd=710n nrd=651.163m nrs=651.163m sa=140n sb=140n \
        sd=160n sca=162.02845 scb=0.10751 scc=0.02009 m=(1)
    mp2 (Y B0 net89 inh_VDD) g45p1svt w=(215n) l=45n nf=1 as=30.1f \
        ad=30.1f ps=710n pd=710n nrd=651.163m nrs=651.163m sa=140n sb=140n \
        sd=160n sca=162.02845 scb=0.10751 scc=0.02009 m=(1)
ends AOI22XL
// End of subcircuit definition.

// Library name: gsclib045
// Cell name: OAI21XL
// View name: schematic
subckt OAI21XL A0 A1 B0 Y inh_VDD inh_VSS
    mn2 (Y B0 n0 inh_VSS) g45n1svt w=(145n) l=45n nf=1 as=20.3f ad=20.3f \
        ps=570n pd=570n nrd=965.517m nrs=965.517m sa=140n sb=140n sd=160n \
        sca=203.41795 scb=0.11509 scc=0.02523 m=(1)
    mn1 (n0 A1 inh_VSS inh_VSS) g45n1svt w=(145n) l=45n nf=1 as=20.3f \
        ad=20.3f ps=570n pd=570n nrd=965.517m nrs=965.517m sa=140n sb=140n \
        sd=160n sca=203.41795 scb=0.11509 scc=0.02523 m=(1)
    mn0 (n0 A0 inh_VSS inh_VSS) g45n1svt w=(145n) l=45n nf=1 as=20.3f \
        ad=20.3f ps=570n pd=570n nrd=965.517m nrs=965.517m sa=140n sb=140n \
        sd=160n sca=203.41795 scb=0.11509 scc=0.02523 m=(1)
    mp0 (n1 A0 inh_VDD inh_VDD) g45p1svt w=(215n) l=45n nf=1 as=30.1f \
        ad=30.1f ps=710n pd=710n nrd=651.163m nrs=651.163m sa=140n sb=140n \
        sd=160n sca=162.02845 scb=0.10751 scc=0.02009 m=(1)
    mp2 (Y B0 inh_VDD inh_VDD) g45p1svt w=(215n) l=45n nf=1 as=30.1f \
        ad=30.1f ps=710n pd=710n nrd=651.163m nrs=651.163m sa=140n sb=140n \
        sd=160n sca=162.02845 scb=0.10751 scc=0.02009 m=(1)
    mp1 (Y A1 n1 inh_VDD) g45p1svt w=(215n) l=45n nf=1 as=30.1f ad=30.1f \
        ps=710n pd=710n nrd=651.163m nrs=651.163m sa=140n sb=140n sd=160n \
        sca=162.02845 scb=0.10751 scc=0.02009 m=(1)
ends OAI21XL
// End of subcircuit definition.

// Library name: gsclib045
// Cell name: XNOR2X1
// View name: schematic
subckt XNOR2X1 A B Y inh_VDD inh_VSS
    mn1 (n2 B inh_VSS inh_VSS) g45n1svt w=(145n) l=45n nf=1 as=20.3f \
        ad=20.3f ps=570n pd=570n nrd=965.517m nrs=965.517m sa=140n sb=140n \
        sd=160n sca=203.41795 scb=0.11509 scc=0.02523 m=(1)
    mn2 (net145 n1 inh_VSS inh_VSS) g45n1svt w=(145n) l=45n nf=1 as=20.3f \
        ad=20.3f ps=570n pd=570n nrd=965.517m nrs=965.517m sa=140n sb=140n \
        sd=160n sca=203.41795 scb=0.11509 scc=0.02523 m=(1)
    mn3 (n0 n2 net145 inh_VSS) g45n1svt w=(145n) l=45n nf=1 as=20.3f \
        ad=20.3f ps=570n pd=570n nrd=965.517m nrs=965.517m sa=140n sb=140n \
        sd=160n sca=203.41795 scb=0.11509 scc=0.02523 m=(1)
    mn5 (Y n0 inh_VSS inh_VSS) g45n1svt w=(260n) l=45n nf=1 as=36.4f \
        ad=36.4f ps=800n pd=800n nrd=538.462m nrs=538.462m sa=140n sb=140n \
        sd=160n sca=144.98299 scb=0.10251 scc=0.01780 m=(1)
    mn0 (n1 A inh_VSS inh_VSS) g45n1svt w=(145n) l=45n nf=1 as=20.3f \
        ad=20.3f ps=570n pd=570n nrd=965.517m nrs=965.517m sa=140n sb=140n \
        sd=160n sca=203.41795 scb=0.11509 scc=0.02523 m=(1)
    mn4 (n0 B n1 inh_VSS) g45n1svt w=(145n) l=45n nf=1 as=20.3f ad=20.3f \
        ps=570n pd=570n nrd=965.517m nrs=965.517m sa=140n sb=140n sd=160n \
        sca=203.41795 scb=0.11509 scc=0.02523 m=(1)
    mp0 (n1 A inh_VDD inh_VDD) g45p1svt w=(215n) l=45n nf=1 as=30.1f \
        ad=30.1f ps=710n pd=710n nrd=651.163m nrs=651.163m sa=140n sb=140n \
        sd=160n sca=162.02845 scb=0.10751 scc=0.02009 m=(1)
    mp4 (n1 n2 n0 inh_VDD) g45p1svt w=(215n) l=45n nf=1 as=30.1f ad=30.1f \
        ps=710n pd=710n nrd=651.163m nrs=651.163m sa=140n sb=140n sd=160n \
        sca=162.02845 scb=0.10751 scc=0.02009 m=(1)
    mp2 (net112 n1 inh_VDD inh_VDD) g45p1svt w=(215n) l=45n nf=1 as=30.1f \
        ad=30.1f ps=710n pd=710n nrd=651.163m nrs=651.163m sa=140n sb=140n \
        sd=160n sca=162.02845 scb=0.10751 scc=0.02009 m=(1)
    mp1 (n2 B inh_VDD inh_VDD) g45p1svt w=(215n) l=45n nf=1 as=30.1f \
        ad=30.1f ps=710n pd=710n nrd=651.163m nrs=651.163m sa=140n sb=140n \
        sd=160n sca=162.02845 scb=0.10751 scc=0.02009 m=(1)
    mp3 (n0 B net112 inh_VDD) g45p1svt w=(215n) l=45n nf=1 as=30.1f \
        ad=30.1f ps=710n pd=710n nrd=651.163m nrs=651.163m sa=140n sb=140n \
        sd=160n sca=162.02845 scb=0.10751 scc=0.02009 m=(1)
    mp5 (Y n0 inh_VDD inh_VDD) g45p1svt w=(390n) l=45n nf=1 as=54.6f \
        ad=54.6f ps=1.06u pd=1.06u nrd=358.974m nrs=358.974m sa=140n \
        sb=140n sd=160n sca=114.89040 scb=0.09003 scc=0.01377 m=(1)
ends XNOR2X1
// End of subcircuit definition.

// Library name: gsclib045
// Cell name: INVX1
// View name: schematic
subckt INVX1 A Y inh_VDD inh_VSS
    mp0 (Y A inh_VDD inh_VDD) g45p1svt w=(390n) l=45n nf=1 as=54.6f \
        ad=54.6f ps=1.06u pd=1.06u nrd=358.974m nrs=358.974m sa=140n \
        sb=140n sd=160n sca=114.89040 scb=0.09003 scc=0.01377 m=(1)
    mn0 (Y A inh_VSS inh_VSS) g45n1svt w=(260n) l=45n nf=1 as=36.4f \
        ad=36.4f ps=800n pd=800n nrd=538.462m nrs=538.462m sa=140n sb=140n \
        sd=160n sca=144.98299 scb=0.10251 scc=0.01780 m=(1)
ends INVX1
// End of subcircuit definition.

// Library name: gsclib045
// Cell name: MX2XL
// View name: schematic
subckt MX2XL A B S0 Y inh_VDD inh_VSS
    mn3 (n5 B inh_VSS inh_VSS) g45n1svt w=(145n) l=45n nf=1 as=20.3f \
        ad=20.3f ps=570n pd=570n nrd=965.517m nrs=965.517m sa=140n sb=140n \
        sd=160n sca=203.41795 scb=0.11509 scc=0.02523 m=(1)
    mn4 (n0 S0 n5 inh_VSS) g45n1svt w=(145n) l=45n nf=1 as=20.3f ad=20.3f \
        ps=570n pd=570n nrd=965.517m nrs=965.517m sa=140n sb=140n sd=160n \
        sca=203.41795 scb=0.11509 scc=0.02523 m=(1)
    mn0 (S0b S0 inh_VSS inh_VSS) g45n1svt w=(145n) l=45n nf=1 as=20.3f \
        ad=20.3f ps=570n pd=570n nrd=965.517m nrs=965.517m sa=140n sb=140n \
        sd=160n sca=203.41795 scb=0.11509 scc=0.02523 m=(1)
    mn1 (n3 A inh_VSS inh_VSS) g45n1svt w=(145n) l=45n nf=1 as=20.3f \
        ad=20.3f ps=570n pd=570n nrd=965.517m nrs=965.517m sa=140n sb=140n \
        sd=160n sca=203.41795 scb=0.11509 scc=0.02523 m=(1)
    mn5 (Y n0 inh_VSS inh_VSS) g45n1svt w=(145n) l=45n nf=1 as=20.3f \
        ad=20.3f ps=570n pd=570n nrd=965.517m nrs=965.517m sa=140n sb=140n \
        sd=160n sca=203.41795 scb=0.11509 scc=0.02523 m=(1)
    mn2 (n0 S0b n3 inh_VSS) g45n1svt w=(145n) l=45n nf=1 as=20.3f ad=20.3f \
        ps=570n pd=570n nrd=965.517m nrs=965.517m sa=140n sb=140n sd=160n \
        sca=203.41795 scb=0.11509 scc=0.02523 m=(1)
    mp4 (n0 S0b n6 inh_VDD) g45p1svt w=(215n) l=45n nf=1 as=30.1f ad=30.1f \
        ps=710n pd=710n nrd=651.163m nrs=651.163m sa=140n sb=140n sd=160n \
        sca=162.02845 scb=0.10751 scc=0.02009 m=(1)
    mp3 (n6 B inh_VDD inh_VDD) g45p1svt w=(215n) l=45n nf=1 as=30.1f \
        ad=30.1f ps=710n pd=710n nrd=651.163m nrs=651.163m sa=140n sb=140n \
        sd=160n sca=162.02845 scb=0.10751 scc=0.02009 m=(1)
    mp5 (Y n0 inh_VDD inh_VDD) g45p1svt w=(215n) l=45n nf=1 as=30.1f \
        ad=30.1f ps=710n pd=710n nrd=651.163m nrs=651.163m sa=140n sb=140n \
        sd=160n sca=162.02845 scb=0.10751 scc=0.02009 m=(1)
    mp0 (S0b S0 inh_VDD inh_VDD) g45p1svt w=(215n) l=45n nf=1 as=30.1f \
        ad=30.1f ps=710n pd=710n nrd=651.163m nrs=651.163m sa=140n sb=140n \
        sd=160n sca=162.02845 scb=0.10751 scc=0.02009 m=(1)
    mp2 (n0 S0 n4 inh_VDD) g45p1svt w=(215n) l=45n nf=1 as=30.1f ad=30.1f \
        ps=710n pd=710n nrd=651.163m nrs=651.163m sa=140n sb=140n sd=160n \
        sca=162.02845 scb=0.10751 scc=0.02009 m=(1)
    mp1 (n4 A inh_VDD inh_VDD) g45p1svt w=(215n) l=45n nf=1 as=30.1f \
        ad=30.1f ps=710n pd=710n nrd=651.163m nrs=651.163m sa=140n sb=140n \
        sd=160n sca=162.02845 scb=0.10751 scc=0.02009 m=(1)
ends MX2XL
// End of subcircuit definition.

// Library name: gsclib045
// Cell name: OAI21X1
// View name: schematic
subckt OAI21X1 A0 A1 B0 Y inh_VDD inh_VSS
    mn2 (Y B0 n0 inh_VSS) g45n1svt w=(260n) l=45n nf=1 as=36.4f ad=36.4f \
        ps=800n pd=800n nrd=538.462m nrs=538.462m sa=140n sb=140n sd=160n \
        sca=144.98299 scb=0.10251 scc=0.01780 m=(1)
    mn1 (n0 A1 inh_VSS inh_VSS) g45n1svt w=(260n) l=45n nf=1 as=36.4f \
        ad=36.4f ps=800n pd=800n nrd=538.462m nrs=538.462m sa=140n sb=140n \
        sd=160n sca=144.98299 scb=0.10251 scc=0.01780 m=(1)
    mn0 (n0 A0 inh_VSS inh_VSS) g45n1svt w=(260n) l=45n nf=1 as=36.4f \
        ad=36.4f ps=800n pd=800n nrd=538.462m nrs=538.462m sa=140n sb=140n \
        sd=160n sca=144.98299 scb=0.10251 scc=0.01780 m=(1)
    mp0 (n1 A0 inh_VDD inh_VDD) g45p1svt w=(390n) l=45n nf=1 as=54.6f \
        ad=54.6f ps=1.06u pd=1.06u nrd=358.974m nrs=358.974m sa=140n \
        sb=140n sd=160n sca=114.89040 scb=0.09003 scc=0.01377 m=(1)
    mp2 (Y B0 inh_VDD inh_VDD) g45p1svt w=(390n) l=45n nf=1 as=54.6f \
        ad=54.6f ps=1.06u pd=1.06u nrd=358.974m nrs=358.974m sa=140n \
        sb=140n sd=160n sca=114.89040 scb=0.09003 scc=0.01377 m=(1)
    mp1 (Y A1 n1 inh_VDD) g45p1svt w=(390n) l=45n nf=1 as=54.6f ad=54.6f \
        ps=1.06u pd=1.06u nrd=358.974m nrs=358.974m sa=140n sb=140n \
        sd=160n sca=114.89040 scb=0.09003 scc=0.01377 m=(1)
ends OAI21X1
// End of subcircuit definition.

// Library name: gsclib045
// Cell name: NAND2BX1
// View name: schematic
subckt NAND2BX1 AN B Y inh_VDD inh_VSS
    mn2 (Y B n1 inh_VSS) g45n1svt w=(260n) l=45n nf=1 as=36.4f ad=36.4f \
        ps=800n pd=800n nrd=538.462m nrs=538.462m sa=140n sb=140n sd=160n \
        sca=144.98299 scb=0.10251 scc=0.01780 m=(1)
    mn0 (n0 AN inh_VSS inh_VSS) g45n1svt w=(145n) l=45n nf=1 as=20.3f \
        ad=20.3f ps=570n pd=570n nrd=965.517m nrs=965.517m sa=140n sb=140n \
        sd=160n sca=203.41795 scb=0.11509 scc=0.02523 m=(1)
    mn1 (n1 n0 inh_VSS inh_VSS) g45n1svt w=(260n) l=45n nf=1 as=36.4f \
        ad=36.4f ps=800n pd=800n nrd=538.462m nrs=538.462m sa=140n sb=140n \
        sd=160n sca=144.98299 scb=0.10251 scc=0.01780 m=(1)
    mp1 (Y n0 inh_VDD inh_VDD) g45p1svt w=(390n) l=45n nf=1 as=54.6f \
        ad=54.6f ps=1.06u pd=1.06u nrd=358.974m nrs=358.974m sa=140n \
        sb=140n sd=160n sca=114.89040 scb=0.09003 scc=0.01377 m=(1)
    mp2 (Y B inh_VDD inh_VDD) g45p1svt w=(390n) l=45n nf=1 as=54.6f \
        ad=54.6f ps=1.06u pd=1.06u nrd=358.974m nrs=358.974m sa=140n \
        sb=140n sd=160n sca=114.89040 scb=0.09003 scc=0.01377 m=(1)
    mp0 (n0 AN inh_VDD inh_VDD) g45p1svt w=(215n) l=45n nf=1 as=30.1f \
        ad=30.1f ps=710n pd=710n nrd=651.163m nrs=651.163m sa=140n sb=140n \
        sd=160n sca=162.02845 scb=0.10751 scc=0.02009 m=(1)
ends NAND2BX1
// End of subcircuit definition.

// Library name: gsclib045
// Cell name: AOI221X1
// View name: schematic
subckt AOI221X1 A0 A1 B0 B1 C0 Y inh_VDD inh_VSS
    mn2 (net120 B0 inh_VSS inh_VSS) g45n1svt w=(260n) l=45n nf=1 as=36.4f \
        ad=36.4f ps=800n pd=800n nrd=538.462m nrs=538.462m sa=140n sb=140n \
        sd=160n sca=144.98299 scb=0.10251 scc=0.01780 m=(1)
    mn3 (Y B1 net120 inh_VSS) g45n1svt w=(260n) l=45n nf=1 as=36.4f \
        ad=36.4f ps=800n pd=800n nrd=538.462m nrs=538.462m sa=140n sb=140n \
        sd=160n sca=144.98299 scb=0.10251 scc=0.01780 m=(1)
    mn4 (Y C0 inh_VSS inh_VSS) g45n1svt w=(260n) l=45n nf=1 as=36.4f \
        ad=36.4f ps=800n pd=800n nrd=538.462m nrs=538.462m sa=140n sb=140n \
        sd=160n sca=144.98299 scb=0.10251 scc=0.01780 m=(1)
    mn1 (Y A1 net128 inh_VSS) g45n1svt w=(260n) l=45n nf=1 as=36.4f \
        ad=36.4f ps=800n pd=800n nrd=538.462m nrs=538.462m sa=140n sb=140n \
        sd=160n sca=144.98299 scb=0.10251 scc=0.01780 m=(1)
    mn0 (net128 A0 inh_VSS inh_VSS) g45n1svt w=(260n) l=45n nf=1 as=36.4f \
        ad=36.4f ps=800n pd=800n nrd=538.462m nrs=538.462m sa=140n sb=140n \
        sd=160n sca=144.98299 scb=0.10251 scc=0.01780 m=(1)
    mp3 (net108 B1 net111 inh_VDD) g45p1svt w=(390n) l=45n nf=1 as=54.6f \
        ad=54.6f ps=1.06u pd=1.06u nrd=358.974m nrs=358.974m sa=140n \
        sb=140n sd=160n sca=114.89040 scb=0.09003 scc=0.01377 m=(1)
    mp2 (net108 B0 net111 inh_VDD) g45p1svt w=(390n) l=45n nf=1 as=54.6f \
        ad=54.6f ps=1.06u pd=1.06u nrd=358.974m nrs=358.974m sa=140n \
        sb=140n sd=160n sca=114.89040 scb=0.09003 scc=0.01377 m=(1)
    mp0 (net111 A0 inh_VDD inh_VDD) g45p1svt w=(390n) l=45n nf=1 as=54.6f \
        ad=54.6f ps=1.06u pd=1.06u nrd=358.974m nrs=358.974m sa=140n \
        sb=140n sd=160n sca=114.89040 scb=0.09003 scc=0.01377 m=(1)
    mp1 (net111 A1 inh_VDD inh_VDD) g45p1svt w=(390n) l=45n nf=1 as=54.6f \
        ad=54.6f ps=1.06u pd=1.06u nrd=358.974m nrs=358.974m sa=140n \
        sb=140n sd=160n sca=114.89040 scb=0.09003 scc=0.01377 m=(1)
    mp4 (Y C0 net108 inh_VDD) g45p1svt w=(390n) l=45n nf=1 as=54.6f \
        ad=54.6f ps=1.06u pd=1.06u nrd=358.974m nrs=358.974m sa=140n \
        sb=140n sd=160n sca=114.89040 scb=0.09003 scc=0.01377 m=(1)
ends AOI221X1
// End of subcircuit definition.

// Library name: gsclib045
// Cell name: AOI2BB1XL
// View name: schematic
subckt AOI2BB1XL A0N A1N B0 Y inh_VDD inh_VSS
    mn2 (Y B0 inh_VSS inh_VSS) g45n1svt w=(145n) l=45n nf=1 as=20.3f \
        ad=20.3f ps=570n pd=570n nrd=965.517m nrs=965.517m sa=140n sb=140n \
        sd=160n sca=203.41795 scb=0.11509 scc=0.02523 m=(1)
    mn1 (net100 A1N inh_VSS inh_VSS) g45n1svt w=(145n) l=45n nf=1 as=20.3f \
        ad=20.3f ps=570n pd=570n nrd=965.517m nrs=965.517m sa=140n sb=140n \
        sd=160n sca=203.41795 scb=0.11509 scc=0.02523 m=(1)
    mn3 (Y net100 inh_VSS inh_VSS) g45n1svt w=(145n) l=45n nf=1 as=20.3f \
        ad=20.3f ps=570n pd=570n nrd=965.517m nrs=965.517m sa=140n sb=140n \
        sd=160n sca=203.41795 scb=0.11509 scc=0.02523 m=(1)
    mn0 (net100 A0N inh_VSS inh_VSS) g45n1svt w=(145n) l=45n nf=1 as=20.3f \
        ad=20.3f ps=570n pd=570n nrd=965.517m nrs=965.517m sa=140n sb=140n \
        sd=160n sca=203.41795 scb=0.11509 scc=0.02523 m=(1)
    mp3 (Y net100 net79 inh_VDD) g45p1svt w=(215n) l=45n nf=1 as=30.1f \
        ad=30.1f ps=710n pd=710n nrd=651.163m nrs=651.163m sa=140n sb=140n \
        sd=160n sca=162.02845 scb=0.10751 scc=0.02009 m=(1)
    mp2 (net79 B0 inh_VDD inh_VDD) g45p1svt w=(215n) l=45n nf=1 as=30.1f \
        ad=30.1f ps=710n pd=710n nrd=651.163m nrs=651.163m sa=140n sb=140n \
        sd=160n sca=162.02845 scb=0.10751 scc=0.02009 m=(1)
    mp1 (net100 A1N net87 inh_VDD) g45p1svt w=(215n) l=45n nf=1 as=30.1f \
        ad=30.1f ps=710n pd=710n nrd=651.163m nrs=651.163m sa=140n sb=140n \
        sd=160n sca=162.02845 scb=0.10751 scc=0.02009 m=(1)
    mp0 (net87 A0N inh_VDD inh_VDD) g45p1svt w=(215n) l=45n nf=1 as=30.1f \
        ad=30.1f ps=710n pd=710n nrd=651.163m nrs=651.163m sa=140n sb=140n \
        sd=160n sca=162.02845 scb=0.10751 scc=0.02009 m=(1)
ends AOI2BB1XL
// End of subcircuit definition.

// Library name: gsclib045
// Cell name: OA21X1
// View name: schematic
subckt OA21X1 A0 A1 B0 Y inh_VDD inh_VSS
    mn1 (net107 A1 inh_VSS inh_VSS) g45n1svt w=(145n) l=45n nf=1 as=20.3f \
        ad=20.3f ps=570n pd=570n nrd=965.517m nrs=965.517m sa=140n sb=140n \
        sd=160n sca=203.41795 scb=0.11509 scc=0.02523 m=(1)
    mn0 (net107 A0 inh_VSS inh_VSS) g45n1svt w=(145n) l=45n nf=1 as=20.3f \
        ad=20.3f ps=570n pd=570n nrd=965.517m nrs=965.517m sa=140n sb=140n \
        sd=160n sca=203.41795 scb=0.11509 scc=0.02523 m=(1)
    mn3 (Y net95 inh_VSS inh_VSS) g45n1svt w=(260n) l=45n nf=1 as=36.4f \
        ad=36.4f ps=800n pd=800n nrd=538.462m nrs=538.462m sa=140n sb=140n \
        sd=160n sca=144.98299 scb=0.10251 scc=0.01780 m=(1)
    mn2 (net95 B0 net107 inh_VSS) g45n1svt w=(145n) l=45n nf=1 as=20.3f \
        ad=20.3f ps=570n pd=570n nrd=965.517m nrs=965.517m sa=140n sb=140n \
        sd=160n sca=203.41795 scb=0.11509 scc=0.02523 m=(1)
    mp1 (net95 A1 net98 inh_VDD) g45p1svt w=(215n) l=45n nf=1 as=30.1f \
        ad=30.1f ps=710n pd=710n nrd=651.163m nrs=651.163m sa=140n sb=140n \
        sd=160n sca=162.02845 scb=0.10751 scc=0.02009 m=(1)
    mp0 (net98 A0 inh_VDD inh_VDD) g45p1svt w=(215n) l=45n nf=1 as=30.1f \
        ad=30.1f ps=710n pd=710n nrd=651.163m nrs=651.163m sa=140n sb=140n \
        sd=160n sca=162.02845 scb=0.10751 scc=0.02009 m=(1)
    mp3 (Y net95 inh_VDD inh_VDD) g45p1svt w=(390n) l=45n nf=1 as=54.6f \
        ad=54.6f ps=1.06u pd=1.06u nrd=358.974m nrs=358.974m sa=140n \
        sb=140n sd=160n sca=114.89040 scb=0.09003 scc=0.01377 m=(1)
    mp2 (net95 B0 inh_VDD inh_VDD) g45p1svt w=(215n) l=45n nf=1 as=30.1f \
        ad=30.1f ps=710n pd=710n nrd=651.163m nrs=651.163m sa=140n sb=140n \
        sd=160n sca=162.02845 scb=0.10751 scc=0.02009 m=(1)
ends OA21X1
// End of subcircuit definition.

// Library name: gsclib045
// Cell name: OAI31X1
// View name: schematic
subckt OAI31X1 A0 A1 A2 B0 Y inh_VDD inh_VSS
    mn3 (Y B0 n0 inh_VSS) g45n1svt w=(260n) l=45n nf=1 as=36.4f ad=36.4f \
        ps=800n pd=800n nrd=538.462m nrs=538.462m sa=140n sb=140n sd=160n \
        sca=144.98299 scb=0.10251 scc=0.01780 m=(1)
    mn0 (n0 A0 inh_VSS inh_VSS) g45n1svt w=(260n) l=45n nf=1 as=36.4f \
        ad=36.4f ps=800n pd=800n nrd=538.462m nrs=538.462m sa=140n sb=140n \
        sd=160n sca=144.98299 scb=0.10251 scc=0.01780 m=(1)
    mn2 (n0 A2 inh_VSS inh_VSS) g45n1svt w=(260n) l=45n nf=1 as=36.4f \
        ad=36.4f ps=800n pd=800n nrd=538.462m nrs=538.462m sa=140n sb=140n \
        sd=160n sca=144.98299 scb=0.10251 scc=0.01780 m=(1)
    mn1 (n0 A1 inh_VSS inh_VSS) g45n1svt w=(260n) l=45n nf=1 as=36.4f \
        ad=36.4f ps=800n pd=800n nrd=538.462m nrs=538.462m sa=140n sb=140n \
        sd=160n sca=144.98299 scb=0.10251 scc=0.01780 m=(1)
    mp2 (Y A2 n2 inh_VDD) g45p1svt w=(390n) l=45n nf=1 as=54.6f ad=54.6f \
        ps=1.06u pd=1.06u nrd=358.974m nrs=358.974m sa=140n sb=140n \
        sd=160n sca=114.89040 scb=0.09003 scc=0.01377 m=(1)
    mp1 (n2 A1 n1 inh_VDD) g45p1svt w=(390n) l=45n nf=1 as=54.6f ad=54.6f \
        ps=1.06u pd=1.06u nrd=358.974m nrs=358.974m sa=140n sb=140n \
        sd=160n sca=114.89040 scb=0.09003 scc=0.01377 m=(1)
    mp3 (Y B0 inh_VDD inh_VDD) g45p1svt w=(390n) l=45n nf=1 as=54.6f \
        ad=54.6f ps=1.06u pd=1.06u nrd=358.974m nrs=358.974m sa=140n \
        sb=140n sd=160n sca=114.89040 scb=0.09003 scc=0.01377 m=(1)
    mp0 (n1 A0 inh_VDD inh_VDD) g45p1svt w=(390n) l=45n nf=1 as=54.6f \
        ad=54.6f ps=1.06u pd=1.06u nrd=358.974m nrs=358.974m sa=140n \
        sb=140n sd=160n sca=114.89040 scb=0.09003 scc=0.01377 m=(1)
ends OAI31X1
// End of subcircuit definition.

// Library name: gsclib045
// Cell name: AOI22X1
// View name: schematic
subckt AOI22X1 A0 A1 B0 B1 Y inh_VDD inh_VSS
    mn3 (Y B1 net98 inh_VSS) g45n1svt w=(260n) l=45n nf=1 as=36.4f \
        ad=36.4f ps=800n pd=800n nrd=538.462m nrs=538.462m sa=140n sb=140n \
        sd=160n sca=144.98299 scb=0.10251 scc=0.01780 m=(1)